/*--------------------------------*- C++ -*----------------------------------*\
  =========                 |
  \\      /  F ield         | OpenFOAM: The Open Source CFD Toolbox
   \\    /   O peration     | Website:  https://openfoam.org
    \\  /    A nd           | Version:  13
     \\/     M anipulation  |
\*---------------------------------------------------------------------------*/
FoamFile
{
    format      ascii;
    class       dictionary;
    location    "system";
    object      fvSchemes;
}
// * * * * * * * * * * * * * * * * * * * * * * * * * * * * * * * * * * * * * //

ddtSchemes
{
    default         Euler;
}

gradSchemes
{
    default         Gauss linear;
}

divSchemes
{
    default         none;

    div(rhoPhi,U)   Gauss linearUpwind grad(U);
    div(phi,alpha)  Gauss interfaceCompression vanLeer 1;  // MODERN SYNTAX: integrated compression

    div(((rho*nuEff)*dev2(T(grad(U))))) Gauss linear;
}

laplacianSchemes
{
    default         Gauss linear corrected;
}

interpolationSchemes
{
    default         linear;
}

snGradSchemes
{
    default         corrected;
}

// CRITICAL: VOF interface discretization
// Source: PARAMETERS_AgCl.md → Interface Properties
// "Gauss upwind" required for mass conservation
// Using vanLeer as robust bounded scheme for alpha

// ************************************************************************* //
