/*--------------------------------*- C++ -*----------------------------------*\
  =========                 |
  \\      /  F ield         | OpenFOAM: The Open Source CFD Toolbox
   \\    /   O peration     | Website:  https://openfoam.org
    \\  /    A nd           | Version:  13
     \\/     M anipulation  |
\*---------------------------------------------------------------------------*/
FoamFile
{
    format      ascii;
    class       polyBoundaryMesh;
    location    "constant/polyMesh";
    object      boundary;
}
// * * * * * * * * * * * * * * * * * * * * * * * * * * * * * * * * * * * * * //

15
(
    front
    {
        type            empty;
        inGroups        List<word> 1(empty);
        nFaces          16880;
        startFace       33300;
    }
    back
    {
        type            empty;
        inGroups        List<word> 1(empty);
        nFaces          16880;
        startFace       50180;
    }
    substrate
    {
        type            wall;
        inGroups        List<word> 1(wall);
        nFaces          160;
        startFace       67060;
    }
    wall_isolant_left
    {
        type            wall;
        inGroups        List<word> 1(wall);
        nFaces          26;
        startFace       67220;
    }
    wall_isolant_right
    {
        type            wall;
        inGroups        List<word> 1(wall);
        nFaces          26;
        startFace       67246;
    }
    top_isolant_left
    {
        type            wall;
        inGroups        List<word> 1(wall);
        nFaces          80;
        startFace       67272;
    }
    top_isolant_right
    {
        type            wall;
        inGroups        List<word> 1(wall);
        nFaces          80;
        startFace       67352;
    }
    wall_buse_left_int
    {
        type            wall;
        inGroups        List<word> 1(wall);
        nFaces          68;
        startFace       67432;
    }
    wall_buse_left_ext
    {
        type            wall;
        inGroups        List<word> 1(wall);
        nFaces          16;
        startFace       67500;
    }
    wall_buse_right_int
    {
        type            wall;
        inGroups        List<word> 1(wall);
        nFaces          68;
        startFace       67516;
    }
    wall_buse_right_ext
    {
        type            wall;
        inGroups        List<word> 1(wall);
        nFaces          16;
        startFace       67584;
    }
    inlet
    {
        type            patch;
        nFaces          60;
        startFace       67600;
    }
    atmosphere
    {
        type            patch;
        nFaces          260;
        startFace       67660;
    }
    outlet_left
    {
        type            patch;
        nFaces          30;
        startFace       67920;
    }
    outlet_right
    {
        type            patch;
        nFaces          30;
        startFace       67950;
    }
)

// ************************************************************************* //
